;; -*- emacs-lisp -*-
;;
;; JSON Compilation Database project list.
;;
;; File auto-generated by irony-cdb-json.
;;
(("/home/liu/disk3/SPHinXsys/" . "/tmp/cmakeDCaPeB/compile_commands.json")
 ("/home/liu/disk3/SPHinXsys/" . "/tmp/cmakewZhvYE/compile_commands.json")
 ("/home/liu/DualSPHysics-master/src/source/" . "/tmp/cmakembXIjG/compile_commands.json"))

