("~/.emacs.d/" "~/SPHProject2019/sph2-ehd-0.9/" "~/SPHProject2019/sph2-ehd-0.9-nomove/" "~/StudyRecord/" "~/SPHProject2019/sph2-ehd-0.6/" "~/SPHProject2019/" "~/SPHProject2019/sph2-ehd-eigen0.1/" "~/SPHProject2019/sph2-ehd-0.8/" "~/Documents/StudyRecord/" "~/basilisk/" "~/SPHProject2019/sph2-ehd-0.7/" "~/Downloads/OpenFVM-V1.4/Flow/parallel/source/" "~/Downloads/OpenFVM-v1.1/OpenFVM/Flow/parallel/source/" "~/DualSPHysics-master/src/source/" "~/Downloads/laspack/laspack/" "~/Downloads/" "~/Documents/SPHEHD-Harbin-LIUHu/" "~/Installed/petsc-3.12.3/")