("~/StudyRecord/" "~/.emacs.d/" "~/disk3/SPHinXsys/" "~/disk3/SPHinXsys-Build/" "~/Documents/StudyRecord/" "~/basilisk/" "~/Downloads/OpenFVM-V1.4/Flow/parallel/source/" "~/Downloads/OpenFVM-v1.1/OpenFVM/Flow/parallel/source/" "~/DualSPHysics-master/src/source/" "~/Downloads/laspack/laspack/" "~/Downloads/" "~/Documents/SPHEHD-Harbin-LIUHu/" "~/Installed/petsc-3.12.3/" "~/Installed/simbody/")